Version 4
SHEET 1 2500 1204
WIRE 128 -928 0 -928
WIRE 144 -928 128 -928
WIRE 256 -928 224 -928
WIRE 368 -928 256 -928
WIRE 0 -896 0 -928
WIRE 368 -896 368 -928
WIRE 128 -864 128 -928
WIRE 256 -864 256 -928
WIRE 0 -784 0 -832
WIRE 48 -784 0 -784
WIRE 368 -784 368 -832
WIRE 368 -784 336 -784
WIRE -624 -704 -800 -704
WIRE -512 -704 -624 -704
WIRE -400 -704 -512 -704
WIRE -240 -704 -400 -704
WIRE -128 -704 -240 -704
WIRE -32 -704 -128 -704
WIRE 48 -704 -32 -704
WIRE 688 -704 336 -704
WIRE -624 -688 -624 -704
WIRE -512 -688 -512 -704
WIRE -400 -688 -400 -704
WIRE -736 -672 -800 -672
WIRE -240 -640 -240 -704
WIRE -128 -640 -128 -704
WIRE -32 -624 -32 -704
WIRE 48 -624 -32 -624
WIRE 352 -624 336 -624
WIRE -736 -608 -736 -672
WIRE -624 -592 -624 -624
WIRE -512 -592 -512 -624
WIRE -400 -592 -400 -624
WIRE -128 -544 -128 -560
WIRE 48 -544 -128 -544
WIRE 624 -544 336 -544
WIRE -240 -464 -240 -560
WIRE -240 -464 -336 -464
WIRE 48 -464 -240 -464
WIRE -336 -448 -336 -464
WIRE -240 -448 -240 -464
WIRE -128 -448 -128 -544
WIRE -624 -432 -624 -512
WIRE -512 -432 -512 -512
WIRE -400 -432 -400 -512
WIRE 48 -384 -32 -384
WIRE 368 -384 336 -384
WIRE 480 -384 448 -384
WIRE 560 -384 544 -384
WIRE -32 -368 -32 -384
WIRE -240 -304 -240 -368
WIRE -240 -304 -336 -304
WIRE -240 -288 -240 -304
WIRE -128 -288 -128 -368
WIRE -32 -288 -32 -304
WIRE 256 -288 256 -304
WIRE 128 -224 128 -304
WIRE 128 -96 0 -96
WIRE 144 -96 128 -96
WIRE 256 -96 224 -96
WIRE 368 -96 256 -96
WIRE 0 -64 0 -96
WIRE 368 -64 368 -96
WIRE 128 -32 128 -96
WIRE 256 -32 256 -96
WIRE 624 -16 624 -544
WIRE 1504 -16 624 -16
WIRE 2272 -16 1504 -16
WIRE 1504 32 1504 -16
WIRE 2272 32 2272 -16
WIRE 0 48 0 0
WIRE 48 48 0 48
WIRE 368 48 368 0
WIRE 368 48 336 48
WIRE -624 128 -768 128
WIRE -512 128 -624 128
WIRE -400 128 -512 128
WIRE -240 128 -400 128
WIRE -128 128 -240 128
WIRE -32 128 -128 128
WIRE 48 128 -32 128
WIRE 464 128 336 128
WIRE 688 128 688 -704
WIRE 688 128 464 128
WIRE 768 128 688 128
WIRE 848 128 768 128
WIRE 928 128 848 128
WIRE 992 128 928 128
WIRE 1040 128 992 128
WIRE 1344 128 1040 128
WIRE 1808 128 1344 128
WIRE 2112 128 1808 128
WIRE -624 144 -624 128
WIRE -512 144 -512 128
WIRE -400 144 -400 128
WIRE 688 144 688 128
WIRE 768 144 768 128
WIRE 848 144 848 128
WIRE 928 144 928 128
WIRE -704 160 -768 160
WIRE 464 176 464 128
WIRE -240 192 -240 128
WIRE -128 192 -128 128
WIRE -32 208 -32 128
WIRE 48 208 -32 208
WIRE 352 208 336 208
WIRE -704 224 -704 160
WIRE 1504 224 1504 96
WIRE 1552 224 1504 224
WIRE 1584 224 1552 224
WIRE 1712 224 1664 224
WIRE 2272 224 2272 96
WIRE 2320 224 2272 224
WIRE 2352 224 2320 224
WIRE 2480 224 2432 224
WIRE -624 240 -624 208
WIRE -512 240 -512 208
WIRE -400 240 -400 208
WIRE 688 240 688 208
WIRE 768 240 768 208
WIRE 848 240 848 208
WIRE 928 240 928 208
WIRE 1040 240 1040 128
WIRE 1104 240 1040 240
WIRE 1248 240 1184 240
WIRE 1296 240 1248 240
WIRE 1808 240 1808 128
WIRE 1872 240 1808 240
WIRE 2016 240 1952 240
WIRE 2064 240 2016 240
WIRE 1248 256 1248 240
WIRE 1296 256 1296 240
WIRE 1344 256 1344 128
WIRE 1504 256 1504 224
WIRE 1712 256 1712 224
WIRE 2016 256 2016 240
WIRE 2064 256 2064 240
WIRE 2112 256 2112 128
WIRE 2272 256 2272 224
WIRE 2480 256 2480 224
WIRE -128 288 -128 272
WIRE 48 288 -128 288
WIRE 400 288 336 288
WIRE 464 288 464 256
WIRE 464 288 400 288
WIRE 624 288 624 -16
WIRE 624 288 464 288
WIRE 464 304 464 288
WIRE 1040 304 1040 240
WIRE 1808 304 1808 240
WIRE -240 368 -240 272
WIRE -240 368 -336 368
WIRE 48 368 -240 368
WIRE -336 384 -336 368
WIRE -240 384 -240 368
WIRE -128 384 -128 288
WIRE -624 400 -624 320
WIRE -512 400 -512 320
WIRE -400 400 -400 320
WIRE 688 400 688 320
WIRE 768 400 768 320
WIRE 848 400 848 320
WIRE 928 400 928 320
WIRE 48 448 -32 448
WIRE 368 448 336 448
WIRE 480 448 448 448
WIRE 560 448 544 448
WIRE -32 464 -32 448
WIRE 1040 464 1040 384
WIRE 1248 464 1248 448
WIRE 1248 464 1040 464
WIRE 1808 464 1808 384
WIRE 2016 464 2016 448
WIRE 2016 464 1808 464
WIRE 1344 496 1344 448
WIRE 2112 496 2112 448
WIRE 1040 512 1040 464
WIRE 1808 512 1808 464
WIRE -240 528 -240 464
WIRE -240 528 -336 528
WIRE -240 544 -240 528
WIRE -128 544 -128 464
WIRE -32 544 -32 528
WIRE 256 544 256 528
WIRE 128 608 128 528
WIRE 1040 608 1040 592
WIRE 1808 608 1808 592
FLAG 256 624 0
FLAG -32 544 0
FLAG 688 400 0
FLAG 1040 608 0
FLAG 464 384 0
FLAG 560 448 0
FLAG 992 128 out
FLAG 352 208 0
FLAG 768 400 0
FLAG 848 400 0
FLAG -624 400 0
FLAG -512 400 0
FLAG -400 400 0
FLAG 928 400 0
FLAG 400 288 fb
FLAG 128 608 0
FLAG -240 544 0
FLAG -128 544 0
FLAG 1712 256 0
FLAG 1344 496 0
FLAG 1552 288 0
FLAG 1808 608 0
FLAG 2480 256 0
FLAG 2112 496 0
FLAG 2320 288 0
FLAG 256 -208 0
FLAG -32 -288 0
FLAG 560 -384 0
FLAG 352 -624 0
FLAG -624 -432 0
FLAG -512 -432 0
FLAG -400 -432 0
FLAG 128 -224 0
FLAG -240 -288 0
FLAG -128 -288 0
FLAG -736 -608 0
FLAG -704 224 0
SYMBOL res 240 528 R0
SYMATTR InstName R1
SYMATTR Value 105K
SYMBOL ind 128 -80 R270
WINDOW 0 32 56 VTop 2
WINDOW 3 5 56 VBottom 2
SYMATTR InstName L1
SYMATTR Value 1.5µ
SYMATTR SpiceLine Rser=10m
SYMBOL cap -16 -64 R0
SYMATTR InstName C1
SYMATTR Value .22µ
SYMBOL cap 352 -64 R0
SYMATTR InstName C2
SYMATTR Value .22µ
SYMBOL cap 672 144 R0
SYMATTR InstName C3
SYMATTR Value 22µ
SYMATTR Value2 Rser=5m
SYMBOL cap -16 528 R180
WINDOW 0 24 56 Left 2
WINDOW 3 24 8 Left 2
SYMATTR InstName C4
SYMATTR Value 4.7µ
SYMBOL res 448 160 R0
SYMATTR InstName R2
SYMATTR Value 178k
SYMBOL res 448 288 R0
SYMATTR InstName R3
SYMATTR Value 20k
SYMBOL cap 480 464 R270
WINDOW 0 32 32 VTop 2
WINDOW 3 0 32 VBottom 2
SYMATTR InstName C5
SYMATTR Value 680p
SYMBOL res 1024 496 R0
SYMATTR InstName Rload
SYMATTR Value 5
SYMBOL res 352 464 R270
WINDOW 0 32 56 VTop 2
WINDOW 3 0 56 VBottom 2
SYMATTR InstName R4
SYMATTR Value 78.7k
SYMBOL LTC3119 192 240 R0
WINDOW 0 0 -48 Center 2
WINDOW 3 4 42 Center 2
SYMATTR InstName U1
SYMBOL cap 752 144 R0
SYMATTR InstName C6
SYMATTR Value 22µ
SYMATTR Value2 Rser=5m
SYMBOL cap 832 144 R0
SYMATTR InstName C7
SYMATTR Value 22µ
SYMATTR Value2 Rser=5m
SYMBOL cap -640 144 R0
SYMATTR InstName C8
SYMATTR Value 22µ
SYMATTR Value2 Rser=5m
SYMBOL cap -528 144 R0
SYMATTR InstName C9
SYMATTR Value 22µ
SYMATTR Value2 Rser=5m
SYMBOL cap -416 144 R0
SYMATTR InstName C10
SYMATTR Value 1µ
SYMATTR Value2 Rser=5m
SYMBOL cap 912 144 R0
SYMATTR InstName C11
SYMATTR Value 1µ
SYMATTR Value2 Rser=5m
SYMBOL res -640 224 R0
SYMATTR InstName R13
SYMATTR Value 0.01
SYMBOL res -528 224 R0
SYMATTR InstName R14
SYMATTR Value 0.01
SYMBOL res 672 224 R0
SYMATTR InstName R17
SYMATTR Value 0.01
SYMBOL res 752 224 R0
SYMATTR InstName R18
SYMATTR Value 0.01
SYMBOL res 832 224 R0
SYMATTR InstName R19
SYMATTR Value 0.01
SYMBOL res 912 224 R0
SYMATTR InstName R20
SYMATTR Value 0.01
SYMBOL res -416 224 R0
SYMATTR InstName R15
SYMATTR Value 0.01
SYMBOL res -144 176 R0
SYMATTR InstName R5
SYMATTR Value 158k
SYMBOL res -256 176 R0
SYMATTR InstName R6
SYMATTR Value 220k
SYMBOL res -144 368 R0
SYMATTR InstName R7
SYMATTR Value 127k
SYMBOL res -256 368 R0
SYMATTR InstName R8
SYMATTR Value 47k
SYMBOL res -352 368 R0
SYMATTR InstName R9
SYMATTR Value 1k
SYMBOL cap -320 528 R180
WINDOW 0 24 56 Left 2
WINDOW 3 24 8 Left 2
SYMATTR InstName C12
SYMATTR Value 10n
SYMBOL OpAmps\\LTC6102 1360 352 R270
SYMATTR InstName U3
SYMBOL res 1024 288 R0
SYMATTR InstName R10
SYMATTR Value 5m
SYMBOL res 1200 224 R90
WINDOW 0 0 56 VBottom 2
WINDOW 3 32 56 VTop 2
SYMATTR InstName R11
SYMATTR Value 47
SYMBOL res 1680 208 R90
WINDOW 0 0 56 VBottom 2
WINDOW 3 32 56 VTop 2
SYMATTR InstName R12
SYMATTR Value 4.99k
SYMBOL diode 1520 96 R180
WINDOW 0 24 64 Left 2
WINDOW 3 24 0 Left 2
SYMATTR InstName D1
SYMATTR Value BAS116HY
SYMBOL cap 1536 224 R0
SYMATTR InstName C13
SYMATTR Value 220n
SYMBOL res 1792 496 R0
SYMATTR InstName Rload1
SYMATTR Value 5
SYMBOL OpAmps\\LTC6102 2128 352 R270
SYMATTR InstName U33
SYMBOL res 1792 288 R0
SYMATTR InstName R16
SYMATTR Value 5m
SYMBOL res 1968 224 R90
WINDOW 0 0 56 VBottom 2
WINDOW 3 32 56 VTop 2
SYMATTR InstName R21
SYMATTR Value 47
SYMBOL res 2448 208 R90
WINDOW 0 0 56 VBottom 2
WINDOW 3 32 56 VTop 2
SYMATTR InstName R22
SYMATTR Value 4.99k
SYMBOL diode 2288 96 R180
WINDOW 0 24 64 Left 2
WINDOW 3 24 0 Left 2
SYMATTR InstName D2
SYMATTR Value BAS116HY
SYMBOL cap 2304 224 R0
SYMATTR InstName C14
SYMATTR Value 220n
SYMBOL res 240 -304 R0
SYMATTR InstName R23
SYMATTR Value 105K
SYMBOL ind 128 -912 R270
WINDOW 0 32 56 VTop 2
WINDOW 3 5 56 VBottom 2
SYMATTR InstName L2
SYMATTR Value 1.5µ
SYMATTR SpiceLine Rser=10m
SYMBOL cap -16 -896 R0
SYMATTR InstName C15
SYMATTR Value .22µ
SYMBOL cap 352 -896 R0
SYMATTR InstName C16
SYMATTR Value .22µ
SYMBOL cap -16 -304 R180
WINDOW 0 24 56 Left 2
WINDOW 3 24 8 Left 2
SYMATTR InstName C17
SYMATTR Value 4.7µ
SYMBOL cap 480 -368 R270
WINDOW 0 32 32 VTop 2
WINDOW 3 0 32 VBottom 2
SYMATTR InstName C18
SYMATTR Value 680p
SYMBOL res 352 -368 R270
WINDOW 0 32 56 VTop 2
WINDOW 3 0 56 VBottom 2
SYMATTR InstName R26
SYMATTR Value 78.7k
SYMBOL LTC3119 192 -592 R0
WINDOW 0 0 -48 Center 2
WINDOW 3 4 42 Center 2
SYMATTR InstName U18
SYMBOL cap -640 -688 R0
SYMATTR InstName C19
SYMATTR Value 22µ
SYMATTR Value2 Rser=5m
SYMBOL cap -528 -688 R0
SYMATTR InstName C20
SYMATTR Value 22µ
SYMATTR Value2 Rser=5m
SYMBOL cap -416 -688 R0
SYMATTR InstName C21
SYMATTR Value 1µ
SYMATTR Value2 Rser=5m
SYMBOL res -640 -608 R0
SYMATTR InstName R27
SYMATTR Value 0.01
SYMBOL res -528 -608 R0
SYMATTR InstName R28
SYMATTR Value 0.01
SYMBOL res -416 -608 R0
SYMATTR InstName R29
SYMATTR Value 0.01
SYMBOL res -144 -656 R0
SYMATTR InstName R30
SYMATTR Value 158k
SYMBOL res -256 -656 R0
SYMATTR InstName R31
SYMATTR Value 220k
SYMBOL res -144 -464 R0
SYMATTR InstName R32
SYMATTR Value 127k
SYMBOL res -256 -464 R0
SYMATTR InstName R33
SYMATTR Value 47k
SYMBOL res -352 -464 R0
SYMATTR InstName R34
SYMATTR Value 1k
SYMBOL cap -320 -304 R180
WINDOW 0 24 56 Left 2
WINDOW 3 24 8 Left 2
SYMATTR InstName C22
SYMATTR Value 10n
SYMBOL XTJ -832 -688 R0
WINDOW 39 -142 146 Bottom 2
WINDOW 40 -122 111 Bottom 2
SYMATTR InstName U2
SYMATTR SpiceLine2 numSeries=2 numParallel=10
SYMBOL XTJ -800 144 R0
WINDOW 39 -142 146 Bottom 2
WINDOW 40 -122 111 Bottom 2
SYMATTR InstName U4
SYMATTR SpiceLine2 numSeries=2 numParallel=10
TEXT -64 664 Left 2 ;Using the LTspice built-in directive ".softstart", you can reduce the softstart\ntime of some products models' internal softstart.  ".softstart 0.1" directs the\nmodel to execute its internal softstart in 10% of the true start-up time.
TEXT 568 616 Left 2 !.softstart .1
TEXT 568 584 Left 2 !.tran 0 5m 4m startup
